<?xml version="1.0" encoding="UTF-8"?>

<!-- generated on 2025-04-11 15:21:03.266747 by randomTrips.py v1_22_0+0002-63e50f52594
<configuration>
    <net-file value="C:\Users\Admin\Sumo\2025-03-27-10-13-28\osm.net.xml.gz"/>
    <route-file value="C:\Users\Admin\Sumo\2025-03-27-10-13-28\osm.passenger.trips.xml"/>
    <length value="True"/>
    <end value="1000.0"/>
</configuration>
-->

<!-- generated on 2025-04-11 15:21:03 by Eclipse SUMO duarouter Version 1.22.0
<duarouterConfiguration xmlns:xsi="http://www.w3.org/2001/XMLSchema-instance" xsi:noNamespaceSchemaLocation="http://sumo.dlr.de/xsd/duarouterConfiguration.xsd">

    <input>
        <net-file value="C:\Users\Admin\Sumo\2025-03-27-10-13-28\osm.net.xml.gz"/>
        <route-files value="trips.trips.xml"/>
    </input>

    <output>
        <output-file value="C:\Users\Admin\Sumo\2025-03-27-10-13-28\osm.passenger.trips.xml"/>
        <alternatives-output value="NUL"/>
    </output>

    <time>
        <begin value="0"/>
        <end value="1000.0"/>
    </time>

    <report>
        <no-warnings value="true"/>
        <ignore-errors value="true"/>
        <no-step-log value="true"/>
    </report>

</duarouterConfiguration>
-->

<routes xmlns:xsi="http://www.w3.org/2001/XMLSchema-instance" xsi:noNamespaceSchemaLocation="http://sumo.dlr.de/xsd/routes_file.xsd">
    <vehicle id="0" depart="0.00">
        <route edges="168119165#0 168119165#1 168119165#2 166724646#0 166724646#1 166483575#0 166483575#1 166483575#2 166483575#3 166483575#4 166483575#5 1019893678 -1262075255"/>
    </vehicle>
    <vehicle id="1" depart="1.00">
        <route edges="-451542451#1 -451542451#0 E9 E8 E7 1213551725#1 167043963#0 167044123#2 -1214976885 331667202#7 172129867#1 172129867#2 172129867#3 -368910377#1"/>
    </vehicle>
    <vehicle id="2" depart="2.00">
        <route edges="172127429#1 -172127429#1 168126211#1 E17 E16 168132501#3 168132501#5 -167044123#4 -167044123#3 -1214976885 331667202#7 172129867#1 -1234567421 170106259#4"/>
    </vehicle>
    <vehicle id="3" depart="3.00">
        <route edges="451542452#0 451542452#1 451542452#2 1069815571#3 167048848#0 167048407#0 167048407#1 1069815572 1257759191#1 1257759191#2 1257759191#4 1257759191#5 1257759191#6 1257759191#7 167046552#1 167046552#4 167046552#5 37358090#10 37358090#11 37358090#12 -167046634#2 -167046634#1"/>
    </vehicle>
    <vehicle id="5" depart="5.00">
        <route edges="-358335205 168132496#5 168132496#6 168132496#7 E3 E5 E7 1213551725#1 1327503565 1213551723#0 1213551723#1 1213551723#2 244329800#0 734329883#5 734329883#6 244329796 166952951 -166943453#1 166943453#0"/>
    </vehicle>
    <vehicle id="6" depart="6.00">
        <route edges="-1262069408#0 992663484 167046543#10 167046543#11 E7 1213551725#1 167043963#0 167044123#2 -1214976885 -331667202#6 -331667202#5"/>
    </vehicle>
    <vehicle id="7" depart="7.00">
        <route edges="168124714#3 -167046552#11 -167046552#9 -167046552#8 -167046552#7 -167046552#6 -167046552#5 -167046552#4 -167046552#3 167046543#0 167046543#1 167046543#2"/>
    </vehicle>
    <vehicle id="8" depart="8.00">
        <route edges="-358335206 168132496#4 168132496#5 168132496#6 168132496#7 37358090#1 37358090#2 37358090#3 37358090#4 37358090#5 37358090#6 -167046553#2 167046543#3 -167050545#4 -167050545#3 -167050545#2 -167050545#1 -167050545#0 167046970#0 167046970#1 167046970#2"/>
    </vehicle>
    <vehicle id="9" depart="9.00">
        <route edges="331667202#10 451820775 -451820775 -331667202#10 -331667202#8 -451521697#6 -451521697#5 -451521697#4 1127483397#0 -1191981330"/>
    </vehicle>
    <vehicle id="10" depart="10.00">
        <route edges="331667202#0 331667202#1 331667202#2 331667202#3 331667202#4 331667202#5 331667202#6 1054636897 -167044123#2 -167044123#1 175183620 1213551724 1257759191#1 1257759191#2 1257759191#4 1257759191#5 1257759191#6 1257759191#7 167046552#1 167046552#4 167046552#5 37358090#10 37358090#11 172126098#0 172126098#2"/>
    </vehicle>
    <vehicle id="11" depart="11.00">
        <route edges="-992663479#0 37358090#4 37358090#5 37358090#6 167046553#3 167046553#4 -172127428#3 -172127428#2 -172127429#2 -172127429#1"/>
    </vehicle>
    <vehicle id="12" depart="12.00">
        <route edges="734341871 317768264#4 167046543#9 167046543#10 167046543#11 E7 1213551725#1 167043963#0 167044123#2 -1214976885 -331667202#6 -331667202#5 -331667202#4 -331667202#3 -331667202#2 1055033872"/>
    </vehicle>
    <vehicle id="13" depart="13.00">
        <route edges="-167046553#3 -167046553#2 167046543#3 -167050545#4 -167050545#3"/>
    </vehicle>
    <vehicle id="14" depart="14.00">
        <route edges="37358090#7 -37358090#7 -167046553#2 1257759191#5 362907448 358334882#1 358334882#2 451524168 167049315#1"/>
    </vehicle>
    <vehicle id="15" depart="15.00">
        <route edges="331667202#0 331667202#1 331667202#2 331667202#3 331667202#4 331667202#5 331667202#6 1054636897 -167044123#2 -167044123#1 175183620"/>
    </vehicle>
    <vehicle id="16" depart="16.00">
        <route edges="166953972#5 166724645#1 1327502623 1213551722 166483575#4 168132496#0 168132496#1 168132496#2 168132496#3 168132496#4 168132496#5 168132496#6 168132496#7 37358090#1 681302528#0 992663484"/>
    </vehicle>
    <vehicle id="17" depart="17.00">
        <route edges="1213551718#0 166954236 244329804#2 1327503566 1213551724 1257759191#1 1257759191#2 1257759191#4 1257759191#5 1257759191#6 1257759191#7 1257759191#8 1257759191#9 167045920#3 167045920#4 167045920#5 167045920#6 167046551"/>
    </vehicle>
    <vehicle id="18" depart="18.00">
        <route edges="362907448 -358334882#0 362907721#0 1257759191#7 167046552#1 167046552#4 167046552#5 167046552#6 167046552#7 167046552#8 167046552#9 167046552#11 167046552#13 168119164#3"/>
    </vehicle>
    <vehicle id="19" depart="19.00">
        <route edges="37574240#1 167046552#4 167046552#5 37358090#10 37358090#11 37358090#12 167046634#3 167046634#4 167046634#5 167046634#6 167046634#7 167046634#8 167046634#9"/>
    </vehicle>
    <vehicle id="20" depart="20.00">
        <route edges="172123715#1 166483062#1 166483061#0 166483061#1 166483061#2 166483061#3 166483061#4 168119166#0 168119166#1 168119166#2 168119166#3 168119162#1 168126211#0 168126211#1 168126211#1.112 168132496#6 168132496#7 E3 E5 E7 1213551725#1 1327503565 1213551723#0 1213551723#1 1213551723#2 244329800#0 734329883#5 734329883#6 244329796 166952951 -166943453#1"/>
    </vehicle>
    <vehicle id="21" depart="21.00">
        <route edges="-362907721#0 358334882#0 358334882#1 358334882#2 317768264#2 317768264#3 317768264#4 167046543#9 167046543#10 167046543#11 E7 1213551725#1 1327503565 1213551723#0 1213551723#1 1213551723#2 244329800#0 244329800#1 244329800#2 -326198933 -326198932#4 -326198932#3 -326198932#2 -326198932#1 -326198932#0 600075416#1 -600075417"/>
    </vehicle>
    <vehicle id="22" depart="22.00">
        <route edges="-167046552#13 -167046552#11 -167046552#9 -167046552#8 -167046552#7 -167046552#6 -37358090#9 -37358090#8 -37358090#7 -37358090#6 -37358090#5"/>
    </vehicle>
    <vehicle id="23" depart="23.00">
        <route edges="-167046634#3 -37358090#12 -37358090#11 -37358090#10 -167046552#5 -167046552#4 -167046552#3 167046543#0 167046543#1 167046543#2 167046543#3 167046543#4 167046543#5 167046543#6 167046543#8 167046543#9 167046543#10 167046543#11 E7 1213551725#1 1327503565 1213551723#0 166954235 1213551718#4 1131105013#0 244329793#0 244329793#1 -451542643"/>
    </vehicle>
    <vehicle id="24" depart="24.00">
        <route edges="168119164#2 168119166#1 168119166#2 168119166#3 168132499 168132501#0 168132501#1 168132497#10 172129858 172129855#0 172129855#1 172129856#1 1213551722"/>
    </vehicle>
    <vehicle id="25" depart="25.00">
        <route edges="1131105013#0 244329793#0 244329793#1 244329793#3 244329793#4 166749694#4 166749694#5 166749694#6 166749694#7 166749694#8 734329883#0 734329883#1 734329883#2 734329883#3 166954435#3 244329804#1 244329804#2 1327503566 1213551724 1257759191#1 -317768264#4 -317768264#3 -317768264#2 -358334882#2"/>
    </vehicle>
    <vehicle id="26" depart="26.00">
        <route edges="-451524466#2 -1191966695#1 -1191966695#0 -451521697#4 -451521697#3 -451521697#1 -451521697#0 -326198932#4 -734747624#1 -734747624#0 734329883#1"/>
    </vehicle>
    <vehicle id="27" depart="27.00">
        <route edges="168124714#1 168124714#2 168124714#3 -167046552#11 -167046552#9 -167046552#8 -167046552#7 -167046552#6 -167046552#5 -167046552#4 -167046552#3 1257759191#8 1257759191#9 167045920#3 167045926#0 167045926#1 167046967#0 -167454980#1 167454980#1"/>
    </vehicle>
    <vehicle id="28" depart="28.00">
        <route edges="-172129858 168132497#11 168132497#12 168132497#13 166483575#6 166483575#0 166483575#1 166483575#2 178823719 1327502621 166725271#0 166725271#1 170106282#1 170106270#0 170106270#1 170106259#1 -1234567420 172129867#3"/>
    </vehicle>
    <vehicle id="29" depart="29.00">
        <route edges="-172127549 -992663479#0 37358090#4 37358090#5 37358090#6 -167046553#2 1257759191#5 1257759191#6 1257759191#7"/>
    </vehicle>
    <vehicle id="31" depart="31.00">
        <route edges="167046543#0 167046543#1 167046543#2 167046553#1 167046553#3 167046553#4 167046553#6 167046553#7 168124716#6 168119162#5 168119164#0 168119164#1 168119164#2 168119164#3 166483061#6 172125337"/>
    </vehicle>
    <vehicle id="32" depart="32.00">
        <route edges="37358090#13 -37358090#13 -37358090#12 -37358090#11 -37358090#10 -167046552#5 -167046552#4 -167046552#3 167046543#0 167046543#1 167046543#2 167046543#3 167046543#4 167046543#5 167046543#6 167046543#8 167046543#9 167046543#10 167046543#11 E7 1213551725#1 1327503565 1213551723#0 166954235 1213551718#4 -451521697#1 -451521697#0 326198933"/>
    </vehicle>
    <vehicle id="33" depart="33.00">
        <route edges="-368910377#0 -170106259#0 -170106270#0 170106277#0 166953972#5 166724645#1 1327502623 1213551722 166483575#4 166483575#5 166483575#6 166483575#0 168137396#0 -1262076813"/>
    </vehicle>
    <vehicle id="34" depart="34.00">
        <route edges="-681302535 167046969#0 167046969#1 358334881 358334882#0 358334882#1 358334882#2 317768264#2 317768264#3 317768264#4 167046543#9 167046543#10 167046543#11 1069815571#0 451542452#0 -451542452#0"/>
    </vehicle>
    <vehicle id="35" depart="35.00">
        <route edges="-358334882#2 167050545#2 358334883#0 317768264#3 317768264#4 167046543#9 167046543#10 167046543#11 E7 1213551725#1 1327503565 1213551723#0 1213551723#1 1213551723#2 244329800#0 734329883#5 734329883#6"/>
    </vehicle>
    <vehicle id="36" depart="36.00">
        <route edges="451521697#6 1054636897 167044123#3 167044123#4 -168132501#5 -168132501#3 -168132501#1 -168132501#0 449235099 168119162#2 168119162#3 168119162#4 168119162#5 168119164#0 168119164#1 168119164#2 168119164#3 166483061#6 166483061#7 166483061#8 166483061#0 166483061#1 166483061#2 166483061#3 166483065#0 1262058117 1262058113#0 -758629174#0"/>
    </vehicle>
    <vehicle id="37" depart="37.00">
        <route edges="168124716#1 168124716#2 168124714#4 168124714#5 168124714#6 -168134097#3 168124716#0 1262063491"/>
    </vehicle>
    <vehicle id="38" depart="38.00">
        <route edges="473533579#2 1258483505#1 451521697#0 451521697#1 1131105013#0 244329793#0 -451542640#2 -451542640#1 166724645#1 1327502623"/>
    </vehicle>
    <vehicle id="39" depart="39.00">
        <route edges="-451524466#1 451524469 -451521697#5 -451521697#4 -451521697#3 -451521697#1 -451521697#0"/>
    </vehicle>
    <vehicle id="40" depart="40.00">
        <route edges="167046543#4 167046543#5 167046543#6 167046543#8 167046543#9 167046543#10 167046543#11 E7 1213551725#1 167043963#0 167044123#2 -1214976885 -451521697#6 -451521697#5 1191966695#0 1191966695#1 451524466#2 -451524468"/>
    </vehicle>
    <vehicle id="41" depart="41.00">
        <route edges="167046634#0 167046634#1 167046634#2 -37358090#12 -37358090#11 -37358090#10 -37358090#9 -37358090#8 -37358090#7 167046553#3 167046553#4 167046553#6 167046553#7 168124716#6 168119162#5 168119162#6 168132499 168132501#0 168132501#1 168132501#3 451820854"/>
    </vehicle>
    <vehicle id="42" depart="42.00">
        <route edges="1257759191#8 1257759191#9 167045920#3 167045920#4 167045920#5 167045920#6 167045920#1 1069815570 167046543#0 -362907721#0"/>
    </vehicle>
    <vehicle id="43" depart="43.00">
        <route edges="E3 E5 E7 1213551725#1 1327503565 1213551723#0 1213551723#1 1213551723#2 244329800#0 734329883#5 734329883#6 244329796 166952951 -166943453#1 166943453#0"/>
    </vehicle>
    <vehicle id="44" depart="44.00">
        <route edges="-167046553#2 167046543#3 167046543#4 167046543#5 167046543#6 167046543#8 167046543#9 167046543#10 167046543#11 E7 1213551725#1 1327503565 1213551723#0 1213551723#1 1213551723#2 244329800#0 734329883#5 734329883#6 244329796 166952951 -166943453#1"/>
    </vehicle>
    <vehicle id="45" depart="45.00">
        <route edges="-167050545#4 167050545#4 1257759191#4 1257759191#5 1257759191#6 1257759191#7 167046552#1 167046552#4 167046552#5 167046552#6 167046552#7 167046552#8 167046552#9 167046552#11 167046552#13 168119166#1"/>
    </vehicle>
    <vehicle id="46" depart="46.00">
        <route edges="326198737 381421581 1353673501#0 539200827 -381421612 1307443859#0 1307444957 166749694#5 166749694#6 166749694#7 166749694#8 1315284312"/>
    </vehicle>
    <vehicle id="47" depart="47.00">
        <route edges="-167044123#0 -754807128#1 -754807128#0 167048848#0 167048407#0 167048407#1 1069815572 1257759191#1 1257759191#2 1257759191#4 1257759191#5 1257759191#6 1257759191#7 1257759191#8 1257759191#9"/>
    </vehicle>
    <vehicle id="48" depart="48.00">
        <route edges="E3 E5 E7 1213551725#1 167043963#0 167044123#2"/>
    </vehicle>
    <vehicle id="49" depart="49.00">
        <route edges="952411579 166455930 168134387 168134500 168134499 166483061#8 166483061#0 166483061#1 166483061#2 166483061#3 166483065#0 166483065#1 166483065#2 166483065#3 166483065#4 166724646#0 166724646#1 166483575#0 166483575#1 166483575#2 178823719 1327502621 166725271#0 166725271#1 166953969#2 166953969#3 1307443858#0 1307443858#1 381421612 -539200827 1353673501#1 381424537#1"/>
    </vehicle>
    <vehicle id="50" depart="50.00">
        <route edges="-1194686010 167046634#2 -37358090#12 -37358090#11 -37358090#10 -37358090#9 -37358090#8 -37358090#7 167046553#3 167046553#4 167046553#6 167046553#7 168124716#6 168119162#5 168119162#6 168132499 168132501#0 168132501#1 168132501#3 168132501#5 167044123#5 172129856#0"/>
    </vehicle>
    <vehicle id="51" depart="51.00">
        <route edges="168132501#1 168132501#3 168132501#5 167044123#5"/>
    </vehicle>
    <vehicle id="52" depart="52.00">
        <route edges="-451524466#1 -451524466#0 331667202#6 1054636897 167044123#3 167044123#4 -168132501#5 -168132501#3 -168132501#1 -168132501#0 449235099 168119162#2 168119162#3 168119162#4 168119162#5 168119164#0 168119164#1 -172126967 168124716#5"/>
    </vehicle>
    <vehicle id="53" depart="53.00">
        <route edges="-168132501#0 449235099 168119162#2 168119162#3 168119162#4 168119162#5 168119164#0 168122688 168119165#0 168119165#1 168119165#2 166724646#0 166724646#1 166483575#0 166483575#1 166483575#2 178823719 1327502621 166725271#0 166725271#1 166953969#2 166953969#3 166749694#4 166749694#5 166749694#6 166749694#7 166749694#8 1315284312"/>
    </vehicle>
    <vehicle id="54" depart="54.00">
        <route edges="1315284314 244329793#0 -451542640#2 -451542640#1 166724645#1 172129862#0 -331667202#8 1054636897 -167044123#2 -167044123#1 -167044123#0 -754807128#1 -1261799833#1 -755783558#0 167048408 -167048408 755783558#0"/>
    </vehicle>
    <vehicle id="55" depart="55.00">
        <route edges="451521697#6 -331667202#6 451524466#0 451524466#1 451524466#2 -451524468"/>
    </vehicle>
    <vehicle id="56" depart="56.00">
        <route edges="166483064 168119166#0 168119166#1 168119166#2 168119166#3 168132499 168132501#0 168132501#1 168132501#3 168132501#5 -167044123#4 -167044123#3 -1214976885 -451521697#6 -451521697#5 -451521697#4 -451521697#3 -451521697#1 -451521697#0 -326198932#4 -326198932#3 -326198932#2 -326198932#1"/>
    </vehicle>
    <vehicle id="57" depart="57.00">
        <route edges="473533579#2 1258483505#1 451521697#0 451521697#1 451521697#2 451521697#4 451521697#5 451521697#6"/>
    </vehicle>
    <vehicle id="58" depart="58.00">
        <route edges="-600075416#3 -600075416#2 -600075416#1 -1264721011#1 1307443859#0 1307443859#1 166953972#1 166953972#2 166953972#5 166724645#1 1327502623 1213551722 166483575#4 166483575#5 1019893678 166483489#0 166483489#1 168119163 168119166#3 168119162#1 168119162#2 168119162#3 168124714#0 168124714#1 168124714#2 168124714#3 168124716#3 168124716#4"/>
    </vehicle>
    <vehicle id="59" depart="59.00">
        <route edges="167048405 175183620 1213551724 1257759191#1 1257759191#2 1257759191#4 167046553#1 167046553#3 167046553#4 -172127428#3 -172127428#2 -172127428#1"/>
    </vehicle>
    <vehicle id="60" depart="60.00">
        <route edges="244329796 166952951 -166943453#1 166954435#1 166954435#2 166954435#3 1213551718#3 1213551718#4 451521697#2 451521697#4 451521697#5 451521697#6 1054636897 167044123#3 167044123#4 167044123#5 167044123#7"/>
    </vehicle>
    <vehicle id="62" depart="62.00">
        <route edges="-1047012804#0 1047012804#0 1047012804#1 1047012804#2 -166943453#1 166954435#1 166954435#2 166954435#3 244329804#1 244329804#2 1327503566 1213551724 1257759191#1 167046543#9 -992663484"/>
    </vehicle>
    <vehicle id="63" depart="63.00">
        <route edges="-1262062894 166483061#6 166483061#7 166483061#8 166483061#0 166483061#1 166483061#2 166483061#3 166483061#4 168119166#0 -167046552#13 -167046552#11 -167046552#9 -167046552#8 -167046552#7 -167046552#6 -167046552#5 -167046552#4 -167046552#3 167046543#0 -362907721#0 -358334881 167046969#2 -167050545#0 167046970#0 167046970#1 681302536#1"/>
    </vehicle>
    <vehicle id="64" depart="64.00">
        <route edges="451524168 167049315#1 -358334883#1 317768264#3 317768264#4 167046543#9 -992663484 -681302528#0 37358090#2 37358090#3 37358090#4 37358090#5"/>
    </vehicle>
    <vehicle id="65" depart="65.00">
        <route edges="-681302528#0 -37358090#1 168132497#5 168132497#6 168132497#7 E15 E16 168132501#3 168132501#5 -167044123#4 -167044123#3 -167044123#2"/>
    </vehicle>
    <vehicle id="66" depart="66.00">
        <route edges="451521697#6 1054636897 -167044123#2 -167044123#1 175183620 1213551724 1257759191#1 -317768264#4 -734341871 734341871"/>
    </vehicle>
    <vehicle id="67" depart="67.00">
        <route edges="-167046552#6 167046552#6 167046552#7 167046552#8 167046552#9 167046552#11 167046552#13 168119164#3 166483061#6 166483061#7 166483061#8 166483061#0 166483061#1 166483061#2 166483061#3 166483065#0 166483065#1 166483065#2 166483065#3"/>
    </vehicle>
    <vehicle id="68" depart="68.00">
        <route edges="-167044123#2 167044123#2 -1214976885 -451521697#6 -451521697#5 -451521697#4 -451521697#3 -451521697#1 -451521697#0 -539200824#1 473533579#4 326198727"/>
    </vehicle>
    <vehicle id="69" depart="69.00">
        <route edges="29376203 166954435#1 166954435#2 166954435#3 244329804#1 244329804#2 1327503566 1213551724 1257759191#1 1257759191#2 1257759191#4 1257759191#5 1257759191#6 1257759191#7 167046552#1 167046552#4 167046552#5 167046552#6 167046552#7 167046552#8 167046552#9 167046552#11 168124714#4 -172125775#6 -172125776"/>
    </vehicle>
    <vehicle id="70" depart="70.00">
        <route edges="1327503565 1213551723#0 1213551723#1 1213551723#2 244329800#0 166954435#3 244329804#1 244329804#2 1327503566 1213551724 1257759191#1 1257759191#2 167046543#4 167046543#5 167046543#6"/>
    </vehicle>
    <vehicle id="71" depart="71.00">
        <route edges="-451524466#1 -451524466#0 331667202#6 1054636897 -167044123#2 -167044123#1 175183620 1213551724 1257759191#1 -317768264#4 -317768264#3 -317768264#2 451524168"/>
    </vehicle>
    <vehicle id="73" depart="73.00">
        <route edges="166954435#3 244329804#1 244329804#2 1327503566 1213551724 E7 1213551725#1 167043963#0 -167044123#1 175183620"/>
    </vehicle>
    <vehicle id="74" depart="74.00">
        <route edges="-331667202#8 1054636897 167044123#3 -758066398"/>
    </vehicle>
    <vehicle id="75" depart="75.00">
        <route edges="E3 E5 E7 1213551725#1 167043963#0 167044123#2 167044123#3 167044123#4 -168132501#5 451820854 -172129858 168132496#2"/>
    </vehicle>
    <vehicle id="76" depart="76.00">
        <route edges="1315284312 244329796 166952951 -166943453#1 166954435#1 166954435#2 166954435#3 1213551718#3 1213551718#4 1131105013#0 244329793#0 244329793#1 244329793#3 166955153 166953972#2"/>
    </vehicle>
    <vehicle id="77" depart="77.00">
        <route edges="-170106259#4 -170106259#3 -170106259#2 -170106259#0 -170106270#0 170106277#0 166953972#5 166724645#1 1327502623 1213551722 166483575#4 168132496#0 168132496#1 168132496#2 168132496#3 168132496#4 168132496#5 168132496#6 168132496#7 37358090#1 -37358090#1"/>
    </vehicle>
    <vehicle id="78" depart="78.00">
        <route edges="-992663477 326198932#3 326198932#4 451521697#0 734329883#2 734329883#3 166954435#3 244329804#1 244329804#2 1327503566 1213551724 E10 E11 -358334883#1 -358334883#0 -167050545#2 -167050545#1 -167050545#0 167046970#0 167046970#1"/>
    </vehicle>
    <vehicle id="79" depart="79.00">
        <route edges="-368910377#1 -368910377#0 170106259#1 170106259#3 -451820775 -331667202#10 -331667202#8 1054636897 -167044123#2 -167044123#1 175183620 1213551724 1257759191#1 1257759191#2 1257759191#4 1257759191#5 1257759191#6 -362907721#0"/>
    </vehicle>
    <vehicle id="80" depart="80.00">
        <route edges="-167044123#3 167044123#3 167044123#4 -168132501#5 -168132501#3 -168132501#1 -168132501#0 449235099 168119162#2 168119162#3 168124714#0 168124714#1 168124714#2"/>
    </vehicle>
    <vehicle id="81" depart="81.00">
        <route edges="-368910377#0 -170106259#0 -170106270#0 170106277#0 166953969#2 166953969#3 1307443858#0 1307443858#1 381421612 -539200827 1353673501#1 473533579#2"/>
    </vehicle>
    <vehicle id="82" depart="82.00">
        <route edges="37574240#0 37574240#1 -167046552#3"/>
    </vehicle>
    <vehicle id="83" depart="83.00">
        <route edges="-37358090#4 37358090#4 37358090#5 37358090#6 37358090#7 37358090#8 37358090#9 167046552#6 167046552#7 167046552#8 167046552#9 167046552#11 168124714#4 168124714#5 168124714#6 -168134097#3 -168134097#2 -168134097#1 168134500"/>
    </vehicle>
    <vehicle id="84" depart="84.00">
        <route edges="-358334883#0 167050545#3 167050545#4 1257759191#4 1257759191#5 1257759191#6 1257759191#7 167046552#1 167046552#4 167046552#5 167046552#6 167046552#7 167046552#8 167046552#9 167046552#11 168124716#3 -172126966"/>
    </vehicle>
    <vehicle id="85" depart="85.00">
        <route edges="681302528#0 681302528#2 167046543#8 -317768264#4 -734341871 167050545#4 1257759191#4 1257759191#5 1257759191#6 1257759191#7 1257759191#8 1257759191#9 167045920#3 167045920#4 167045920#5 167045920#6 167046551 167046634#0"/>
    </vehicle>
    <vehicle id="86" depart="86.00">
        <route edges="1327502623 1213551722 166483575#4 166483575#5 166483575#6 166483575#0 166483575#1 166483575#2 178823719 172129860#0 172129860#1 -167044123#5 -167044123#4 -167044123#3 -1214976885 -331667202#6 -331667202#5 -331667202#4 -331667202#3 -331667202#2 -331667202#1 -331667202#0 37574230#0 -37574230#0 331667202#0"/>
    </vehicle>
    <vehicle id="87" depart="87.00">
        <route edges="331667202#0 -331667202#0"/>
    </vehicle>
    <vehicle id="88" depart="88.00">
        <route edges="-167046634#0 167046549 1069815570 167046543#0 167046543#1 167046543#2 167046543#3 167046543#4 167046543#5 167046543#6 167046543#8 167046543#9 167046543#10 167046543#11 E7 1213551725#1 1327503565 1213551723#0 166954235 1213551718#4 1131105013#0 244329793#0 244329793#1 244329793#3 244329793#4 166749694#4 166749694#5 166749694#6 166749694#7 166749694#8 1315284312"/>
    </vehicle>
    <vehicle id="89" depart="89.00">
        <route edges="1264716332 -37358090#10 -167046552#5 -167046552#4 -167046552#3 167046543#0 167046543#1 167046543#2 167046543#3 167046543#4 167046543#5 167046543#6 167046543#8 167046543#9 167046543#10 167046543#11 E7 1213551725#1 1327503565 1213551723#0 1213551723#1 1213551723#2 244329800#0 166954435#3 244329804#1 244329804#2 1327503566"/>
    </vehicle>
    <vehicle id="90" depart="90.00">
        <route edges="172127183#2 167046552#9 167046552#11 168124716#3 168124716#4 168124716#5 168124716#6 168119162#5 168119164#0 168122688 168119165#0 168119165#1 168119165#2 166724646#0 166724646#1 166483575#0 168137396#0"/>
    </vehicle>
    <vehicle id="91" depart="91.00">
        <route edges="992663494#0 992663494#1 166483489#1 166483064 166483061#5 166483061#6 172125337 -168134097#1 -168134097#0 -167051092"/>
    </vehicle>
    <vehicle id="93" depart="93.00">
        <route edges="37574240#1 -167046552#3 167046543#0 167046543#1 167046543#2 167046543#3 167046543#4 167046543#5 167046543#6 167046543#8 167046543#9 167046543#10 167046543#11 E7 1213551725#1 167043963#0 167044123#2 -1214976885 -451521697#6 -451521697#5 -451521697#4 -451521697#3"/>
    </vehicle>
    <vehicle id="94" depart="94.00">
        <route edges="-326202084 1307443859#0 1307444957 166749694#5 166749694#6 166749694#7 166749694#8 734329883#0 734329883#1 734329883#2 734329883#3 166954435#3 244329804#1 244329804#2 1262049569 -37574231#2 -37574231#0 37574230#1 244327259 1315284314"/>
    </vehicle>
    <vehicle id="96" depart="96.00">
        <route edges="-37574231#2 -37574231#0 37574230#1 244327259 1213551718#0 166954236 244329804#2 1327503566 1213551724 1257759191#1 167046543#9 -992663484 681302528#2"/>
    </vehicle>
    <vehicle id="97" depart="97.00">
        <route edges="1315284312 244329796 166952951 -1047012804#2 -1047012804#1 -1047012804#0 1287011168 326198737 381421581 381424537#1"/>
    </vehicle>
    <vehicle id="98" depart="98.00">
        <route edges="167044123#3 -167044123#3 -167044123#2 -167044123#1 -167044123#0"/>
    </vehicle>
    <vehicle id="99" depart="99.00">
        <route edges="E8 E7 1213551725#1 167043963#0 167044123#2 -1214976885 -331667202#6 -331667202#5 -331667202#4 -331667202#3 -331667202#2 -331667202#1 -331667202#0 37574230#0"/>
    </vehicle>
    <vehicle id="100" depart="100.00">
        <route edges="758629177#0 758629177#1 -758629177#1 -758629177#0 166483065#4 168119163 168119166#3 168119162#1 168119162#2 168119162#3 168124714#0 -167046553#7 -167046553#6 -167046553#4 -167046553#3 -167046553#2 167046543#3 167046543#4 681302529"/>
    </vehicle>
    <vehicle id="101" depart="101.00">
        <route edges="37358090#8 37358090#9 167046552#6 167046552#7 167046552#8 167046552#9 167046552#11 168124716#3 168124716#4 168124716#5 168124716#6 168119162#5 168119162#6 168132499 168132501#0 168132501#1 168132497#10 172129858 172129855#0 172129855#1 -172129855#1"/>
    </vehicle>
    <vehicle id="102" depart="102.00">
        <route edges="1327503566 1213551724 E10 E11 -358334883#1 -358334883#0"/>
    </vehicle>
    <vehicle id="103" depart="103.00">
        <route edges="1257759191#9 167045920#3 167045920#4 167045920#5 167045920#6 167045920#1 1069815570 167046543#0 167046543#1 167046543#2 167046543#3 167046543#4 167046543#5 167046543#6 167046543#8 167046543#9 167046543#10 167046543#11 E7 1213551725#1 167043963#0 167044123#2 -167044123#2"/>
    </vehicle>
    <vehicle id="104" depart="104.00">
        <route edges="1213551718#4 -451521697#1 734329883#2 734329883#3 166954435#3 244329804#1 244329804#2 1327503566 1213551724 E10 E11"/>
    </vehicle>
    <vehicle id="105" depart="105.00">
        <route edges="-451524466#1 -451524466#0 -331667202#5 -331667202#4 -331667202#3 -331667202#2 -331667202#1 -331667202#0 37574230#0 -37574230#0 331667202#0"/>
    </vehicle>
    <vehicle id="106" depart="106.00">
        <route edges="1315284314 244329793#0 244329793#1 244329793#3 244329793#4 166749694#4 166749694#5 166749694#6 166749694#7 166749694#8 1315284312"/>
    </vehicle>
    <vehicle id="107" depart="107.00">
        <route edges="734341871 317768264#4 167046543#9 -992663484 -681302528#0 -37358090#1 E3"/>
    </vehicle>
    <vehicle id="108" depart="108.00">
        <route edges="167045926#0 167045926#1 167046967#0 167046967#1 167046967#2 167045920#5 167045920#6 167046551 167046634#0 167046634#1 167046634#2 -37358090#12 -37358090#11 -37358090#10 -37358090#9 -37358090#8 -37358090#7 167046553#3 167046553#4 167046553#6 167046553#7 168124716#6 168119162#5 168119162#6 168132499 168132501#0 168132501#1 168132497#10 172129858 172129855#0"/>
    </vehicle>
    <vehicle id="109" depart="109.00">
        <route edges="-172127428#0 172127428#3 -167046553#4 -167046553#3 -37358090#6 -37358090#5 -37358090#4 -37358090#3 681302526 -1262069408#0 -681302528#0"/>
    </vehicle>
    <vehicle id="110" depart="110.00">
        <route edges="758629177#0 758629177#1 -758629177#1 -758629177#0 166483065#4 166724646#0 166724646#1 166483575#0 166483575#1 166483575#2 166483575#3 166483575#4 168132496#0 168132496#1 168132496#2 168132496#3 168132496#4 168132496#5 168132496#6 168132496#7 E3 E5 1069815571#0 1069815571#1 -317779045#1 -451542451#1 -451542451#0 167046968#2"/>
    </vehicle>
    <vehicle id="111" depart="111.00">
        <route edges="167043963#0 167044123#2 167044123#3 167044123#4 167044123#5 172129856#0 172129856#1 1213551722 166483575#4 166483575#5 1019893678 166483489#0 166483489#1 29491933"/>
    </vehicle>
    <vehicle id="112" depart="112.00">